test/data/case6_flex.m
% Garver system - Transmission Network Estimation Using Linear Programming, IEEE trans. on power appratus and sys
% Power system transmission network expansion planning using AC model by Rider, MJ and Garcia, AV and Romero, R
%modification: gen cost is changed. A low value is set to penalize power losses but not dominate the objective.
function mpc = case6
mpc.version = '2';
mpc.baseMVA = 100.0;

%% bus data
%	bus_i	type	Pd	Qd	Gs	Bs	area	Vm      Va	baseKV	zone	Vmax	Vmin lat lon
mpc.bus = [
	1	 3	 80	   16	 0.0	 0.0	  1	    1.10000	   -0.00000	   240.0	 1	    1.05000	    0.95000;
	2	 1	 240	 48  0.0	 0.0	  1	    0.92617	    7.25883	   240.0	 1	    1.05000	    0.95000;
	3	 2	 40	   8	 0.0	 0.0	 	1	    0.90000	   -17.26710	 240.0	 1	  	1.05000	0.95000;
	4	 1	 160	 32	 0.0	 0.0	  1	    1.10000	   -0.00000	   240.0	 1	    1.05000	    0.95000;
	5	 1	 240	 48	 0.0	 0.0	  1	    0.92617	    7.25883	   240.0	 1	    1.05000	    0.95000;
	6	 2	  0    0	 0.0	 0.0	  1	    0.90000	   -17.26710	 240.0	 1	    1.05000	    0.95000;
];

%% generator data
%	bus	Pg      Qg	Qmax	Qmin	Vg	mBase       status	Pmax	Pmin	pc1 pc2 qlcmin qlcmax qc2min qc2max ramp_agc ramp_10 ramp_30 ramp_q apf
mpc.gen = [
	1	 148	 54   48.0	 -10.0	 1.1	     100.0	 1	 150.0	 0.0	 0.0	 0.0	 0.0	 0.0	 0.0	 0.0	 0.0	 0.0	 0.0	 0.0	 0.0;
	3	 170	 -8	 101.0	 -10.0	 0.92617	 100.0	 1	 180.0	 0.0	 0.0	 0.0	 0.0	 0.0	 0.0	 0.0	 0.0	 0.0	 0.0	 0.0	 0.0;
    3	 170	 -8	 101.0	 -10.0	 0.92617	 100.0	 1	 180.0	 0.0	 0.0	 0.0	 0.0	 0.0	 0.0	 0.0	 0.0	 0.0	 0.0	 0.0	 0.0;
	6	 0.0	 -4  183.0	 -10.0	 0.9	     100.0	 1	 120.0	 0.0	 0.0	 0.0	 0.0	 0.0	 0.0	 0.0	 0.0	 0.0	 0.0	 0.0	 0.0;
    6	 0.0	 -4  183.0	 -10.0	 0.9	     100.0	 1	 240.0	 0.0	 0.0	 0.0	 0.0	 0.0	 0.0	 0.0	 0.0	 0.0	 0.0	 0.0	 0.0;
    6	 0.0	 -4  183.0	 -10.0	 0.9	     100.0	 1	 240.0	 0.0	 0.0	 0.0	 0.0	 0.0	 0.0	 0.0	 0.0	 0.0	 0.0	 0.0	 0.0;
];

mpc.gencost = [
	2	 0.0	 0.0	 3	   0	   0.02    0;
	2	 0.0	 0.0	 3	   0	   0.0201  0;
    2	 0.0	 0.0	 3	   0	   0.01	   0;
    2	 0.0	 0.0	 3	   0	   0.0202  0;
    2	 0.0	 0.0	 3	   0	   0.0101  0;
    2	 0.0	 0.0	 3	   0	   0.0102  0;
];

%% branch data
%	fbus	tbus	r	x	b	rateA	rateB	rateC	ratio	angle
%	status angmin angmax
mpc.branch = [
	1   2   0.040   0.400   0.00   100  100  100  0  0  1 -60  60;
	1   4   0.060   0.600   0.00   80   80   80   0  0  1 -60  60;
	2   3   0.020   0.200   0.00   100  100  100  0  0  1 -60  60;
    2   4   0.040   0.400   0.00   100  100  100  0  0  1 -60  60;
];

%column_names% f_bus	t_bus	br_r	br_x	br_b	rate_a	rate_b	rate_c	tap	shift	br_status	angmin	angmax	construction_cost
mpc.ne_branch = [
  1  3   0.020   0.200   0.00   100  100  100  0  0  1 -60  60 5;
  3  4   0.020   0.200   0.00   100  100  100  0  0  1 -60  60 3;
];

%% existing dc bus data
%column_names%   busdc_i grid    Pdc     Vdc     basekVdc    Vdcmax  Vdcmin Cdc
mpc.busdc = [
1              1       0       1       320         1.1     0.9  0;
2              1       0       1       320         1.1     0.9  0;
3              1       0       1       320         1.1     0.9  0;
4              1       0       1       320         1.1     0.9  0;
];

%% existing converters
%column_names%   busdc_i busac_i type_dc type_ac P_g   Q_g  islcc  Vtar rtf xtf  transformer tm   bf filter    rc      xc  reactor   basekVac Vmmax   Vmmin   Imax    status   LossA LossB  LossCrec LossCinv  droop Pdcset    Vdcset  dVdcset Pacmax Pacmin Qacmax Qacmin
mpc.convdc = [
1       5   1       1       -360    -1.66   		0 1.0        0.01  0.01 1 1 0.01 1 0.01   0.01 1  320         1.1     0.9     15     1     	1.1033 0.887  2.885    2.885       0.0050    -52.7   1.0079   0 110 -110 50 -50;
2       5   1       1       -360    -1.66   		0 1.0        0.01  0.01 1 1 0.01 1 0.01   0.01 1  320         1.1     0.9     15     1      1.1033 0.887  2.885    2.885       0.0050    -52.7   1.0079   0 110 -110 50 -50;
3       1   1       1       -360    -1.66   		0 1.0        0.01  0.01 1 1 0.01 1 0.01   0.01 1  320         1.1     0.9     15     1      1.1033 0.887  2.885    2.885       0.0050    -52.7   1.0079   0 110 -110 50 -50;
4       3   1       1       -360    -1.66   		0 1.0        0.01  0.01 1 1 0.01 1 0.01   0.01 1  320         1.1     0.9     15     1      1.1033 0.887  2.885    2.885       0.0050    -52.7   1.0079   0 110 -110 50 -50;
];

%% existing dc branches
%column_names%   fbusdc  tbusdc  r      l        c   rateA   rateB   rateC status
mpc.branchdc = [
	1	 3	 0.01	 0.00	 0.00  100.0	 0.0	 0.0	 1.0;
	2	 4	 0.01	 0.00	 0.00  100.0	 0.0	 0.0	 1.0;
 ];

%% candidate dc bus data
%column_names%   busdc_i grid    Pdc     Vdc     basekVdc    Vdcmax  Vdcmin  Cdc
mpc.busdc_ne = [
5              1       0       1       320         1.1     0.9     0;
6              1       0       1       320         1.1     0.9     0;
7              1       0       1       320         1.1     0.9     0;
8              1       0       1       320         1.1     0.9     0;
];

%% candidate branches
%column_names%   fbusdc  tbusdc  r      l        c   rateA   rateB   rateC status cost
mpc.branchdc_ne = [
	5	 6	 0.01	 0.00	 0.00  330.0	 0.0	 0.0	 1.0	 2.3;
	5	 7	 0.01	 0.00	 0.00  330.0	 0.0	 0.0	 1.0	 2;
    5	 8	 0.01	 0.00	 0.00  330.0	 0.0	 0.0	 1.0	 3.5;
 ];

%% candidate converters
%column_names%   busdc_i busac_i type_dc type_ac P_g   Q_g  islcc  Vtar rtf xtf  transformer tm   bf filter    rc      xc  reactor   basekVac Vmmax   Vmmin   Imax    status   LossA LossB  LossCrec LossCinv  droop Pdcset    Vdcset  dVdcset Pacmax Pacmin Qacmax Qacmin cost
mpc.convdc_ne = [
5       6   1       1       -360    -1.66   		0 1.0        0.01  0.01 1 1 0.01 1 0.01   0.01 1  320         1.1     0.9     15     1     	1.1033 0.887  2.885    2.885       0.0050    -52.7   1.0079   0 330 -330 50 -50 3;
5       6   1       1       -360    -1.66   		0 1.0        0.01  0.01 1 1 0.01 1 0.01   0.01 1  320         1.1     0.9     15     1     	1.1033 0.887  2.885    2.885       0.0050    -52.7   1.0079   0 330 -330 50 -50 3;
5       6   1       1       -360    -1.66   		0 1.0        0.01  0.01 1 1 0.01 1 0.01   0.01 1  320         1.1     0.9     15     1      1.1033 0.887  2.885    2.885       0.0050    -52.7   1.0079   0 660 -660 50 -50 5;
6       3   1       1       -360    -1.66   		0 1.0        0.01  0.01 1 1 0.01 1 0.01   0.01 1  300         1.1     0.9     15     1      1.1033 0.887  2.885    2.885       0.0050    -52.7   1.0079   0 330 -330 50 -50 3;
7       4   1       1       -360    -1.66   		0 1.0        0.01  0.01 1 1 0.01 1 0.01   0.01 1  320         1.1     0.9     15     1      1.1033 0.887  2.885    2.885       0.0050    -52.7   1.0079   0 330 -330 50 -50 3;
8       5   1       1       -360    -1.66   		0 1.0        0.01  0.01 1 1 0.01 1 0.01   0.01 1  320         1.1     0.9     15     1      1.1033 0.887  2.885    2.885       0.0050    -52.7   1.0079   0 330 -330 50 -50 3;
];

% hours
mpc.time_elapsed = 1.0

%% storage data
%   storage_bus ps qs energy  energy_rating charge_rating  discharge_rating  charge_efficiency  discharge_efficiency  thermal_rating  qmin  qmax  r  x  p_loss  q_loss  status
mpc.storage = [
	 5	 0.0	 0.0	 0.0	 0.0	 0.0	 0.0	 0.9	 0.9	 250.0	 -50.0	 70.0	 0.1	 0.0	 0.0	 0.0	 1;
];

%% storage additional data
%column_names%  max_energy_absorption stationary_energy_inflow stationary_energy_outflow discharge_rate
mpc.storage_extra = [
2400 0 0 0.001;
];


%% storage data
%column_names%   storage_bus ps qs energy  energy_rating charge_rating  discharge_rating  charge_efficiency  discharge_efficiency  thermal_rating  qmin  qmax  r  x  p_loss  q_loss  status eq_cost inst_cost env_cost max_energy_absorption stationary_energy_inflow stationary_energy_outflow
mpc.ne_storage = [
	 5	 0.0	 0.0	 0.0	 1000.0	 200.0	 250.0	 0.9	 0.9	 250	 -50.0	 70.0	 0.1	 0.0	 0.0	 0.0	  1 	250 	50 	100 2400 0 0;
];



%% load additional data
%column_names% load_id e_nce_max p_red_max p_red_min p_shift_up_max p_shift_up_min p_shift_down_max p_shift_down_min t_grace_up t_grace_down cost_reduction cost_shift_up cost_shift_down cost_curt cost_inv flex
mpc.load_extra = [
1 0 0 0 0 0 0 0 0 0 0 0 0 1 0 0;
2 0 0 0 0 0 0 0 0 0 0 0 0 1 0 0;
3 0 0 0 0 0 0 0 0 0 0 0 0 1 0 0;
4 0 0 0 0 0 0 0 0 0 0 0 0 1 0 0;
5 100 1 0 0.3 0 0.3 0 2 2 0.1 0.00 0.00 10 0.0 1;
];
